# sent_id = s1
# text = NATURAL SEAWATER-BASED PRO99 MEDIUM
1	glass	_	Device	_	_	0	_	_	Offset=46-65
2	flask	_	Location	_	_	0	_	_	Offset=70-75
3	cleaning	_	Action	_	_	0	_	_	Offset=79-87
4	acid	_	Reagent	_	_	0	_	_	Offset=93-97
5	Milli-Q	_	Reagent	_	_	0	_	_	Offset=102-115

# sent_id = s2
# text = Prepare a glass filter funnel and flask by cleaning with acid and Milli-Q water. 
1	Filter	_	Action	_	_	0	_	_	Offset=118-124
2	raw	_	Modifier	_	_	3	Mod-Link	_	Offset=125-128
3	seawater	_	Reagent	_	_	0	_	_	Offset=129-137
4	47mm	_	Size	_	_	5	Setting	_	Offset=146-150
5	Whatman	_	Device	_	_	0	_	_	Offset=151-163
6	stacked	_	Action	_	_	0	_	_	Offset=164-171
7	top	_	Location	_	_	0	_	_	Offset=175-178
8	47mm	_	Size	_	_	10	Setting	_	Offset=184-188
9	0.2µm	_	Size	_	_	10	Setting	_	Offset=189-194
10	polycarbonate	_	Device	_	_	7	Meronym	_	Offset=195-215

# sent_id = s3
# text = Filter raw seawater through 47mm Whatman GF/F stacked on top of a 47mm 0.2µm polycarbonate filter. 
1	Autoclave	_	Action	_	_	0	_	_	Offset=218-227
2	seawater	_	Reagent	_	_	0	_	_	Offset=228-236
3	Teflon	_	Location	_	_	0	_	_	Offset=242-255
4	60	_	Time	_	_	0	_	_	Offset=257-267
5	2L	_	Amount	_	_	3	Measure	_	Offset=272-274

# sent_id = s4
# text = Autoclave seawater in a Teflon bottle (60 minutes for 2L). 
1	cool	_	Action	_	_	0	_	_	Offset=287-291
2	overnight	_	Time	_	_	0	_	_	Offset=292-301

# sent_id = s5
# text = Allow to cool overnight. 
1	Prepare	_	Action	_	_	0	_	_	Offset=304-311
2	0.5M	_	Concentration	_	_	3	Measure	_	Offset=312-316
3	NH4Cl	_	Reagent	_	_	0	_	_	Offset=317-331

# sent_id = s6
# text = Prepare 0.5M NH4Cl solution. 
1	Prepare	_	Action	_	_	0	_	_	Offset=334-341
2	0.025M	_	Concentration	_	_	3	Measure	_	Offset=342-348
3	NaH2PO4·H2O	_	Reagent	_	_	0	_	_	Offset=349-369

# sent_id = s7
# text = Prepare 0.025M NaH2PO4·H2O solution. 
1	Prepare	_	Action	_	_	0	_	_	Offset=372-379
2	primary	_	Reagent	_	_	0	_	_	Offset=380-407

# sent_id = s8
# text = Prepare primary trace metal stocks. 
1	Prepare	_	Action	_	_	0	_	_	Offset=409-416
2	trace	_	Reagent	_	_	0	_	_	Offset=417-443

# sent_id = s9
# text = Prepare trace metal working stock. 
1	media	_	Reagent	_	_	0	_	_	Offset=460-465
2	add	_	Action	_	_	0	_	_	Offset=467-470
3	following	_	Amount	_	_	5	Measure	_	Offset=471-488
4	sterile	_	Modifier	_	_	5	Mod-Link	_	Offset=492-499
5	nutrients	_	Reagent	_	_	0	_	_	Offset=500-509
6	trace	_	Reagent	_	_	0	_	_	Offset=514-531
7	one	_	Amount	_	_	9	Measure	_	Offset=535-544
8	autoclaved	_	Modifier	_	_	9	Mod-Link	_	Offset=552-562
9	seawater	_	Reagent	_	_	0	_	_	Offset=563-571

# sent_id = s10
# text = To make up the media, add following volumes of sterile nutrients and trace metal stock to one liter of the autoclaved seawater.
1	Store	_	Action	_	_	0	_	_	Offset=696-701
2	room	_	Temperature	_	_	0	_	_	Offset=705-721
3	up	_	Modifier	_	_	4	Mod-Link	_	Offset=726-731
4	one	_	Time	_	_	0	_	_	Offset=732-741

